** Generated for: hspiceD
** Generated on: Jan 26 16:01:37 2024
** Design library name: ising
** Design cell name: ising_50x50
** Design view name: schematic

** Library name: ising
** Cell name: unit_coupling_tile
** View name: schematic
.subckt unit_coupling_tile d2u_in d2u_out l2r_in l2r_out r2l_in r2l_out u2d_in u2d_out vdd vss
.ends unit_coupling_tile
** End of subcircuit definition.

** Library name: ising
** Cell name: short_tile
** View name: schematic
.subckt short_tile d2u_in d2u_out l2r_in l2r_out r2l_in r2l_out u2d_in u2d_out vdd vss
.ends short_tile
** End of subcircuit definition.

** Library name: ising
** Cell name: enable_tile
** View name: schematic
.subckt enable_tile vdd vss enable in_ out_
.ends enable_tile
** End of subcircuit definition.

** Library name: ising
** Cell name: ising_50x50
** View name: schematic
xi2499 net10342 net10175 net10306 net53 net53 net10303 net10174 net10341 vdd vss unit_coupling_tile
xi2498 net10305 net10173 net10302 net10306 net10303 net10299 net10172 net10304 vdd vss unit_coupling_tile
xi2497 net10301 net10101 net10312 net10302 net10299 net10309 net10100 net10300 vdd vss unit_coupling_tile
xi2496 net10311 net10097 net10313 net10312 net10309 net10307 net10096 net10310 vdd vss unit_coupling_tile
xi2495 net10320 net10107 net10317 net10313 net10307 net10314 net10106 net10308 vdd vss unit_coupling_tile
xi2494 net10316 net10116 net10318 net10317 net10314 net10319 net10104 net10315 vdd vss unit_coupling_tile
xi2493 net10325 net10112 net10326 net10318 net10319 net10321 net10111 net10324 vdd vss unit_coupling_tile
xi2492 net10323 net10121 net10330 net10326 net10321 net10327 net10120 net10322 vdd vss unit_coupling_tile
xi2491 net10329 net10119 net10331 net10330 net10327 net10332 net10118 net10328 vdd vss unit_coupling_tile
xi2490 net10338 net10125 net10336 net10331 net10332 net10333 net10124 net10337 vdd vss unit_coupling_tile
xi2489 net10335 net10134 net10265 net10336 net10333 net10339 net10133 net10334 vdd vss unit_coupling_tile
xi2488 net10264 net10131 net10261 net10265 net10339 net10258 net10130 net10340 vdd vss unit_coupling_tile
xi2487 net10260 net10060 net10262 net10261 net10258 net10263 net10136 net10259 vdd vss unit_coupling_tile
xi2486 net10270 net10056 net10271 net10262 net10263 net10266 net10055 net10269 vdd vss unit_coupling_tile
xi2485 net10268 net10066 net10275 net10271 net10266 net10272 net10065 net10267 vdd vss unit_coupling_tile
xi2484 net10274 net10064 net10276 net10275 net10272 net10277 net10063 net10273 vdd vss unit_coupling_tile
xi2483 net10283 net10070 net10281 net10276 net10277 net10278 net10069 net10282 vdd vss unit_coupling_tile
xi2482 net10280 net10079 net10289 net10281 net10278 net10286 net10078 net10279 vdd vss unit_coupling_tile
xi2481 net10288 net10076 net10290 net10289 net10286 net10284 net10075 net10287 vdd vss unit_coupling_tile
xi2480 net10296 net10084 net10294 net10290 net10284 net10291 net10083 net10285 vdd vss unit_coupling_tile
xi2479 net10293 net10092 net10223 net10294 net10291 net10295 net10081 net10292 vdd vss unit_coupling_tile
xi2478 net10298 net10089 net10220 net10223 net10295 net10217 net10088 net10297 vdd vss unit_coupling_tile
xi2477 net10219 net10094 net10221 net10220 net10217 net10222 net10093 net10218 vdd vss unit_coupling_tile
xi2476 net10229 net10015 net10227 net10221 net10222 net10224 net10014 net10228 vdd vss unit_coupling_tile
xi2475 net10226 net10025 net10235 net10227 net10224 net10232 net10024 net10225 vdd vss unit_coupling_tile
xi2474 net10234 net10022 net10236 net10235 net10232 net10230 net10021 net10233 vdd vss unit_coupling_tile
xi2473 net10243 net10030 net10240 net10236 net10230 net10237 net10029 net10231 vdd vss unit_coupling_tile
xi2472 net10239 net10039 net10241 net10240 net10237 net10242 net10027 net10238 vdd vss unit_coupling_tile
xi2471 net10248 net10035 net10249 net10241 net10242 net10244 net10034 net10247 vdd vss unit_coupling_tile
xi2470 net10246 net10044 net10253 net10249 net10244 net10250 net10043 net10245 vdd vss unit_coupling_tile
xi2469 net10252 net10042 net10254 net10253 net10250 net10255 net10041 net10251 vdd vss unit_coupling_tile
xi2468 net10257 net10048 net10182 net10254 net10255 net10179 net10047 net10256 vdd vss unit_coupling_tile
xi2467 net10181 net10053 net10183 net10182 net10179 net10177 net10052 net10180 vdd vss unit_coupling_tile
xi2466 net10190 net9977 net10187 net10183 net10177 net10184 net9976 net10178 vdd vss unit_coupling_tile
xi2465 net10186 net9986 net10188 net10187 net10184 net10189 net9974 net10185 vdd vss unit_coupling_tile
xi2464 net10195 net9982 net10196 net10188 net10189 net10191 net9981 net10194 vdd vss unit_coupling_tile
xi2463 net10193 net9991 net10200 net10196 net10191 net10197 net9990 net10192 vdd vss unit_coupling_tile
xi2462 net10199 net9989 net10201 net10200 net10197 net10202 net9988 net10198 vdd vss unit_coupling_tile
xi2461 net10208 net9995 net10206 net10201 net10202 net10203 net9994 net10207 vdd vss unit_coupling_tile
xi2460 net10205 net10004 net10214 net10206 net10203 net10211 net10003 net10204 vdd vss unit_coupling_tile
xi2459 net10213 net10001 net10215 net10214 net10211 net10209 net10000 net10212 vdd vss unit_coupling_tile
xi2458 net10216 net10009 net10143 net10215 net10209 net10140 net10008 net10210 vdd vss unit_coupling_tile
xi2457 net10142 net10012 net10144 net10143 net10140 net10137 net10006 net10141 vdd vss unit_coupling_tile
xi2456 net10139 net9938 net10148 net10144 net10137 net10145 net9937 net10138 vdd vss unit_coupling_tile
xi2455 net10147 net9935 net10149 net10148 net10145 net10150 net9934 net10146 vdd vss unit_coupling_tile
xi2454 net10156 net9943 net10154 net10149 net10150 net10151 net9942 net10155 vdd vss unit_coupling_tile
xi2453 net10153 net9952 net10162 net10154 net10151 net10159 net9951 net10152 vdd vss unit_coupling_tile
xi2452 net10161 net9949 net10163 net10162 net10159 net10157 net9948 net10160 vdd vss unit_coupling_tile
xi2451 net10164 net9958 net10165 net10163 net10157 net10166 net9957 net10158 vdd vss unit_coupling_tile
xi2449 net10175 net9961 net10176 net54 net54 net10171 net9960 net10174 vdd vss unit_coupling_tile
xi2448 net10173 net9971 net10102 net10176 net10171 net10099 net9970 net10172 vdd vss unit_coupling_tile
xi2447 net10101 net9969 net10098 net10102 net10099 net10095 net9968 net10100 vdd vss unit_coupling_tile
xi2446 net10097 net9897 net10108 net10098 net10095 net10105 net9896 net10096 vdd vss unit_coupling_tile
xi2445 net10107 net9893 net10109 net10108 net10105 net10103 net9892 net10106 vdd vss unit_coupling_tile
xi2444 net10116 net9903 net10113 net10109 net10103 net10110 net9902 net10104 vdd vss unit_coupling_tile
xi2443 net10112 net9912 net10114 net10113 net10110 net10115 net9900 net10111 vdd vss unit_coupling_tile
xi2442 net10121 net9908 net10122 net10114 net10115 net10117 net9907 net10120 vdd vss unit_coupling_tile
xi2441 net10119 net9917 net10126 net10122 net10117 net10123 net9916 net10118 vdd vss unit_coupling_tile
xi2440 net10125 net9915 net10127 net10126 net10123 net10128 net9914 net10124 vdd vss unit_coupling_tile
xi2439 net10134 net9921 net10132 net10127 net10128 net10129 net9920 net10133 vdd vss unit_coupling_tile
xi2438 net10131 net9930 net10061 net10132 net10129 net10135 net9929 net10130 vdd vss unit_coupling_tile
xi2437 net10060 net9927 net10057 net10061 net10135 net10054 net9926 net10136 vdd vss unit_coupling_tile
xi2436 net10056 net9856 net10058 net10057 net10054 net10059 net9932 net10055 vdd vss unit_coupling_tile
xi2435 net10066 net9852 net10067 net10058 net10059 net10062 net9851 net10065 vdd vss unit_coupling_tile
xi2434 net10064 net9862 net10071 net10067 net10062 net10068 net9861 net10063 vdd vss unit_coupling_tile
xi2433 net10070 net9860 net10072 net10071 net10068 net10073 net9859 net10069 vdd vss unit_coupling_tile
xi2432 net10079 net9866 net10077 net10072 net10073 net10074 net9865 net10078 vdd vss unit_coupling_tile
xi2431 net10076 net9875 net10085 net10077 net10074 net10082 net9874 net10075 vdd vss unit_coupling_tile
xi2430 net10084 net9872 net10086 net10085 net10082 net10080 net9871 net10083 vdd vss unit_coupling_tile
xi2429 net10092 net9880 net10090 net10086 net10080 net10087 net9879 net10081 vdd vss unit_coupling_tile
xi2428 net10089 net9888 net10019 net10090 net10087 net10091 net9877 net10088 vdd vss unit_coupling_tile
xi2427 net10094 net9885 net10016 net10019 net10091 net10013 net9884 net10093 vdd vss unit_coupling_tile
xi2426 net10015 net9890 net10017 net10016 net10013 net10018 net9889 net10014 vdd vss unit_coupling_tile
xi2425 net10025 net9811 net10023 net10017 net10018 net10020 net9810 net10024 vdd vss unit_coupling_tile
xi2424 net10022 net9821 net10031 net10023 net10020 net10028 net9820 net10021 vdd vss unit_coupling_tile
xi2423 net10030 net9818 net10032 net10031 net10028 net10026 net9817 net10029 vdd vss unit_coupling_tile
xi2422 net10039 net9826 net10036 net10032 net10026 net10033 net9825 net10027 vdd vss unit_coupling_tile
xi2421 net10035 net9835 net10037 net10036 net10033 net10038 net9823 net10034 vdd vss unit_coupling_tile
xi2420 net10044 net9831 net10045 net10037 net10038 net10040 net9830 net10043 vdd vss unit_coupling_tile
xi2419 net10042 net9840 net10049 net10045 net10040 net10046 net9839 net10041 vdd vss unit_coupling_tile
xi2418 net10048 net9838 net10050 net10049 net10046 net10051 net9837 net10047 vdd vss unit_coupling_tile
xi2417 net10053 net9844 net9978 net10050 net10051 net9975 net9843 net10052 vdd vss unit_coupling_tile
xi2416 net9977 net9849 net9979 net9978 net9975 net9973 net9848 net9976 vdd vss unit_coupling_tile
xi2415 net9986 net9773 net9983 net9979 net9973 net9980 net9772 net9974 vdd vss unit_coupling_tile
xi2414 net9982 net9782 net9984 net9983 net9980 net9985 net9770 net9981 vdd vss unit_coupling_tile
xi2413 net9991 net9778 net9992 net9984 net9985 net9987 net9777 net9990 vdd vss unit_coupling_tile
xi2412 net9989 net9787 net9996 net9992 net9987 net9993 net9786 net9988 vdd vss unit_coupling_tile
xi2411 net9995 net9785 net9997 net9996 net9993 net9998 net9784 net9994 vdd vss unit_coupling_tile
xi2410 net10004 net9791 net10002 net9997 net9998 net9999 net9790 net10003 vdd vss unit_coupling_tile
xi2409 net10001 net9800 net10010 net10002 net9999 net10007 net9799 net10000 vdd vss unit_coupling_tile
xi2408 net10009 net9797 net10011 net10010 net10007 net10005 net9796 net10008 vdd vss unit_coupling_tile
xi2407 net10012 net9805 net9939 net10011 net10005 net9936 net9804 net10006 vdd vss unit_coupling_tile
xi2406 net9938 net9808 net9940 net9939 net9936 net9933 net9802 net9937 vdd vss unit_coupling_tile
xi2405 net9935 net9734 net9944 net9940 net9933 net9941 net9733 net9934 vdd vss unit_coupling_tile
xi2404 net9943 net9731 net9945 net9944 net9941 net9946 net9730 net9942 vdd vss unit_coupling_tile
xi2403 net9952 net9739 net9950 net9945 net9946 net9947 net9738 net9951 vdd vss unit_coupling_tile
xi2402 net9949 net9748 net9955 net9950 net9947 net9956 net9747 net9948 vdd vss unit_coupling_tile
xi2400 net9964 net9752 net9965 net9959 net9953 net9966 net9751 net9954 vdd vss unit_coupling_tile
xi2399 net9961 net9762 net9962 net55 net55 net9963 net9749 net9960 vdd vss unit_coupling_tile
xi2398 net9971 net9758 net9972 net9962 net9963 net9967 net9757 net9970 vdd vss unit_coupling_tile
xi2397 net9969 net9767 net9898 net9972 net9967 net9895 net9766 net9968 vdd vss unit_coupling_tile
xi2396 net9897 net9765 net9894 net9898 net9895 net9891 net9764 net9896 vdd vss unit_coupling_tile
xi2395 net9893 net9693 net9904 net9894 net9891 net9901 net9692 net9892 vdd vss unit_coupling_tile
xi2394 net9903 net9689 net9905 net9904 net9901 net9899 net9688 net9902 vdd vss unit_coupling_tile
xi2393 net9912 net9699 net9909 net9905 net9899 net9906 net9698 net9900 vdd vss unit_coupling_tile
xi2392 net9908 net9708 net9910 net9909 net9906 net9911 net9696 net9907 vdd vss unit_coupling_tile
xi2391 net9917 net9704 net9918 net9910 net9911 net9913 net9703 net9916 vdd vss unit_coupling_tile
xi2390 net9915 net9713 net9922 net9918 net9913 net9919 net9712 net9914 vdd vss unit_coupling_tile
xi2389 net9921 net9711 net9923 net9922 net9919 net9924 net9710 net9920 vdd vss unit_coupling_tile
xi2388 net9930 net9717 net9928 net9923 net9924 net9925 net9716 net9929 vdd vss unit_coupling_tile
xi2387 net9927 net9726 net9857 net9928 net9925 net9931 net9725 net9926 vdd vss unit_coupling_tile
xi2386 net9856 net9723 net9853 net9857 net9931 net9850 net9722 net9932 vdd vss unit_coupling_tile
xi2385 net9852 net9652 net9854 net9853 net9850 net9855 net9728 net9851 vdd vss unit_coupling_tile
xi2384 net9862 net9648 net9863 net9854 net9855 net9858 net9647 net9861 vdd vss unit_coupling_tile
xi2383 net9860 net9658 net9867 net9863 net9858 net9864 net9657 net9859 vdd vss unit_coupling_tile
xi2382 net9866 net9656 net9868 net9867 net9864 net9869 net9655 net9865 vdd vss unit_coupling_tile
xi2381 net9875 net9662 net9873 net9868 net9869 net9870 net9661 net9874 vdd vss unit_coupling_tile
xi2380 net9872 net9671 net9881 net9873 net9870 net9878 net9670 net9871 vdd vss unit_coupling_tile
xi2379 net9880 net9668 net9882 net9881 net9878 net9876 net9667 net9879 vdd vss unit_coupling_tile
xi2378 net9888 net9676 net9886 net9882 net9876 net9883 net9675 net9877 vdd vss unit_coupling_tile
xi2377 net9885 net9684 net9815 net9886 net9883 net9887 net9673 net9884 vdd vss unit_coupling_tile
xi2376 net9890 net9681 net9812 net9815 net9887 net9809 net9680 net9889 vdd vss unit_coupling_tile
xi2375 net9811 net9686 net9813 net9812 net9809 net9814 net9685 net9810 vdd vss unit_coupling_tile
xi2374 net9821 net9607 net9819 net9813 net9814 net9816 net9606 net9820 vdd vss unit_coupling_tile
xi2373 net9818 net9617 net9827 net9819 net9816 net9824 net9616 net9817 vdd vss unit_coupling_tile
xi2372 net9826 net9614 net9828 net9827 net9824 net9822 net9613 net9825 vdd vss unit_coupling_tile
xi2371 net9835 net9622 net9832 net9828 net9822 net9829 net9621 net9823 vdd vss unit_coupling_tile
xi2370 net9831 net9631 net9833 net9832 net9829 net9834 net9619 net9830 vdd vss unit_coupling_tile
xi2369 net9840 net9627 net9841 net9833 net9834 net9836 net9626 net9839 vdd vss unit_coupling_tile
xi2368 net9838 net9636 net9845 net9841 net9836 net9842 net9635 net9837 vdd vss unit_coupling_tile
xi2367 net9844 net9634 net9846 net9845 net9842 net9847 net9633 net9843 vdd vss unit_coupling_tile
xi2366 net9849 net9640 net9774 net9846 net9847 net9771 net9639 net9848 vdd vss unit_coupling_tile
xi2365 net9773 net9645 net9775 net9774 net9771 net9769 net9644 net9772 vdd vss unit_coupling_tile
xi2364 net9782 net9569 net9779 net9775 net9769 net9776 net9568 net9770 vdd vss unit_coupling_tile
xi2363 net9778 net9578 net9780 net9779 net9776 net9781 net9566 net9777 vdd vss unit_coupling_tile
xi2362 net9787 net9574 net9788 net9780 net9781 net9783 net9573 net9786 vdd vss unit_coupling_tile
xi2361 net9785 net9583 net9792 net9788 net9783 net9789 net9582 net9784 vdd vss unit_coupling_tile
xi2360 net9791 net9581 net9793 net9792 net9789 net9794 net9580 net9790 vdd vss unit_coupling_tile
xi2359 net9800 net9587 net9798 net9793 net9794 net9795 net9586 net9799 vdd vss unit_coupling_tile
xi2358 net9797 net9596 net9806 net9798 net9795 net9803 net9595 net9796 vdd vss unit_coupling_tile
xi2357 net9805 net9593 net9807 net9806 net9803 net9801 net9592 net9804 vdd vss unit_coupling_tile
xi2356 net9808 net9601 net9735 net9807 net9801 net9732 net9600 net9802 vdd vss unit_coupling_tile
xi2355 net9734 net9604 net9736 net9735 net9732 net9729 net9598 net9733 vdd vss unit_coupling_tile
xi2354 net9731 net9527 net9740 net9736 net9729 net9737 net9526 net9730 vdd vss unit_coupling_tile
xi2353 net9739 net9532 net9741 net9740 net9737 net9742 net9531 net9738 vdd vss unit_coupling_tile
xi2351 net9745 net9544 net9753 net9746 net9743 net9750 net9543 net9744 vdd vss unit_coupling_tile
xi2350 net9752 net9541 net9754 net9753 net9750 net9755 net9540 net9751 vdd vss unit_coupling_tile
xi2349 net9762 net9548 net9759 net56 net56 net9756 net9547 net9749 vdd vss unit_coupling_tile
xi2348 net9758 net9558 net9760 net9759 net9756 net9761 net9546 net9757 vdd vss unit_coupling_tile
xi2347 net9767 net9554 net9768 net9760 net9761 net9763 net9553 net9766 vdd vss unit_coupling_tile
xi2346 net9765 net9563 net9694 net9768 net9763 net9691 net9562 net9764 vdd vss unit_coupling_tile
xi2345 net9693 net9561 net9690 net9694 net9691 net9687 net9560 net9692 vdd vss unit_coupling_tile
xi2344 net9689 net9489 net9700 net9690 net9687 net9697 net9488 net9688 vdd vss unit_coupling_tile
xi2343 net9699 net9485 net9701 net9700 net9697 net9695 net9484 net9698 vdd vss unit_coupling_tile
xi2342 net9708 net9495 net9705 net9701 net9695 net9702 net9494 net9696 vdd vss unit_coupling_tile
xi2341 net9704 net9504 net9706 net9705 net9702 net9707 net9492 net9703 vdd vss unit_coupling_tile
xi2340 net9713 net9500 net9714 net9706 net9707 net9709 net9499 net9712 vdd vss unit_coupling_tile
xi2339 net9711 net9509 net9718 net9714 net9709 net9715 net9508 net9710 vdd vss unit_coupling_tile
xi2338 net9717 net9507 net9719 net9718 net9715 net9720 net9506 net9716 vdd vss unit_coupling_tile
xi2337 net9726 net9513 net9724 net9719 net9720 net9721 net9512 net9725 vdd vss unit_coupling_tile
xi2336 net9723 net9522 net9653 net9724 net9721 net9727 net9521 net9722 vdd vss unit_coupling_tile
xi2335 net9652 net9519 net9649 net9653 net9727 net9646 net9518 net9728 vdd vss unit_coupling_tile
xi2334 net9648 net9448 net9650 net9649 net9646 net9651 net9524 net9647 vdd vss unit_coupling_tile
xi2333 net9658 net9444 net9659 net9650 net9651 net9654 net9443 net9657 vdd vss unit_coupling_tile
xi2332 net9656 net9454 net9663 net9659 net9654 net9660 net9453 net9655 vdd vss unit_coupling_tile
xi2331 net9662 net9452 net9664 net9663 net9660 net9665 net9451 net9661 vdd vss unit_coupling_tile
xi2330 net9671 net9458 net9669 net9664 net9665 net9666 net9457 net9670 vdd vss unit_coupling_tile
xi2329 net9668 net9467 net9677 net9669 net9666 net9674 net9466 net9667 vdd vss unit_coupling_tile
xi2328 net9676 net9464 net9678 net9677 net9674 net9672 net9463 net9675 vdd vss unit_coupling_tile
xi2327 net9684 net9472 net9682 net9678 net9672 net9679 net9471 net9673 vdd vss unit_coupling_tile
xi2326 net9681 net9480 net9611 net9682 net9679 net9683 net9469 net9680 vdd vss unit_coupling_tile
xi2325 net9686 net9477 net9608 net9611 net9683 net9605 net9476 net9685 vdd vss unit_coupling_tile
xi2324 net9607 net9482 net9609 net9608 net9605 net9610 net9481 net9606 vdd vss unit_coupling_tile
xi2323 net9617 net9403 net9615 net9609 net9610 net9612 net9402 net9616 vdd vss unit_coupling_tile
xi2322 net9614 net9413 net9623 net9615 net9612 net9620 net9412 net9613 vdd vss unit_coupling_tile
xi2321 net9622 net9410 net9624 net9623 net9620 net9618 net9409 net9621 vdd vss unit_coupling_tile
xi2320 net9631 net9418 net9628 net9624 net9618 net9625 net9417 net9619 vdd vss unit_coupling_tile
xi2319 net9627 net9427 net9629 net9628 net9625 net9630 net9415 net9626 vdd vss unit_coupling_tile
xi2318 net9636 net9423 net9637 net9629 net9630 net9632 net9422 net9635 vdd vss unit_coupling_tile
xi2317 net9634 net9432 net9641 net9637 net9632 net9638 net9431 net9633 vdd vss unit_coupling_tile
xi2316 net9640 net9430 net9642 net9641 net9638 net9643 net9429 net9639 vdd vss unit_coupling_tile
xi2315 net9645 net9436 net9570 net9642 net9643 net9567 net9435 net9644 vdd vss unit_coupling_tile
xi2314 net9569 net9441 net9571 net9570 net9567 net9565 net9440 net9568 vdd vss unit_coupling_tile
xi2313 net9578 net9365 net9575 net9571 net9565 net9572 net9364 net9566 vdd vss unit_coupling_tile
xi2312 net9574 net9374 net9576 net9575 net9572 net9577 net9362 net9573 vdd vss unit_coupling_tile
xi2311 net9583 net9370 net9584 net9576 net9577 net9579 net9369 net9582 vdd vss unit_coupling_tile
xi2310 net9581 net9379 net9588 net9584 net9579 net9585 net9378 net9580 vdd vss unit_coupling_tile
xi2309 net9587 net9377 net9589 net9588 net9585 net9590 net9376 net9586 vdd vss unit_coupling_tile
xi2308 net9596 net9383 net9594 net9589 net9590 net9591 net9382 net9595 vdd vss unit_coupling_tile
xi2307 net9593 net9392 net9602 net9594 net9591 net9599 net9391 net9592 vdd vss unit_coupling_tile
xi2306 net9601 net9389 net9603 net9602 net9599 net9597 net9388 net9600 vdd vss unit_coupling_tile
xi2305 net9604 net9395 net9528 net9603 net9597 net9525 net9394 net9598 vdd vss unit_coupling_tile
xi2304 net9527 net9400 net9529 net9528 net9525 net9530 net9399 net9526 vdd vss unit_coupling_tile
xi2302 net9535 net9323 net9537 net9536 net9533 net9538 net9322 net9534 vdd vss unit_coupling_tile
xi2301 net9544 net9331 net9542 net9537 net9538 net9539 net9330 net9543 vdd vss unit_coupling_tile
xi2300 net9541 net9338 net9550 net9542 net9539 net9551 net9337 net9540 vdd vss unit_coupling_tile
xi2299 net9548 net9336 net9549 net57 net57 net9545 net9335 net9547 vdd vss unit_coupling_tile
xi2298 net9558 net9345 net9555 net9549 net9545 net9552 net9344 net9546 vdd vss unit_coupling_tile
xi2297 net9554 net9354 net9556 net9555 net9552 net9557 net9342 net9553 vdd vss unit_coupling_tile
xi2296 net9563 net9350 net9564 net9556 net9557 net9559 net9349 net9562 vdd vss unit_coupling_tile
xi2295 net9561 net9359 net9490 net9564 net9559 net9487 net9358 net9560 vdd vss unit_coupling_tile
xi2294 net9489 net9357 net9486 net9490 net9487 net9483 net9356 net9488 vdd vss unit_coupling_tile
xi2293 net9485 net9285 net9496 net9486 net9483 net9493 net9284 net9484 vdd vss unit_coupling_tile
xi2292 net9495 net9281 net9497 net9496 net9493 net9491 net9280 net9494 vdd vss unit_coupling_tile
xi2291 net9504 net9291 net9501 net9497 net9491 net9498 net9290 net9492 vdd vss unit_coupling_tile
xi2290 net9500 net9300 net9502 net9501 net9498 net9503 net9288 net9499 vdd vss unit_coupling_tile
xi2289 net9509 net9296 net9510 net9502 net9503 net9505 net9295 net9508 vdd vss unit_coupling_tile
xi2288 net9507 net9305 net9514 net9510 net9505 net9511 net9304 net9506 vdd vss unit_coupling_tile
xi2287 net9513 net9303 net9515 net9514 net9511 net9516 net9302 net9512 vdd vss unit_coupling_tile
xi2286 net9522 net9309 net9520 net9515 net9516 net9517 net9308 net9521 vdd vss unit_coupling_tile
xi2285 net9519 net9318 net9449 net9520 net9517 net9523 net9317 net9518 vdd vss unit_coupling_tile
xi2284 net9448 net9315 net9445 net9449 net9523 net9442 net9314 net9524 vdd vss unit_coupling_tile
xi2283 net9444 net9244 net9446 net9445 net9442 net9447 net9320 net9443 vdd vss unit_coupling_tile
xi2282 net9454 net9240 net9455 net9446 net9447 net9450 net9239 net9453 vdd vss unit_coupling_tile
xi2281 net9452 net9250 net9459 net9455 net9450 net9456 net9249 net9451 vdd vss unit_coupling_tile
xi2280 net9458 net9248 net9460 net9459 net9456 net9461 net9247 net9457 vdd vss unit_coupling_tile
xi2279 net9467 net9254 net9465 net9460 net9461 net9462 net9253 net9466 vdd vss unit_coupling_tile
xi2278 net9464 net9263 net9473 net9465 net9462 net9470 net9262 net9463 vdd vss unit_coupling_tile
xi2277 net9472 net9260 net9474 net9473 net9470 net9468 net9259 net9471 vdd vss unit_coupling_tile
xi2276 net9480 net9268 net9478 net9474 net9468 net9475 net9267 net9469 vdd vss unit_coupling_tile
xi2275 net9477 net9276 net9407 net9478 net9475 net9479 net9265 net9476 vdd vss unit_coupling_tile
xi2274 net9482 net9273 net9404 net9407 net9479 net9401 net9272 net9481 vdd vss unit_coupling_tile
xi2273 net9403 net9278 net9405 net9404 net9401 net9406 net9277 net9402 vdd vss unit_coupling_tile
xi2272 net9413 net9199 net9411 net9405 net9406 net9408 net9198 net9412 vdd vss unit_coupling_tile
xi2271 net9410 net9209 net9419 net9411 net9408 net9416 net9208 net9409 vdd vss unit_coupling_tile
xi2270 net9418 net9206 net9420 net9419 net9416 net9414 net9205 net9417 vdd vss unit_coupling_tile
xi2269 net9427 net9214 net9424 net9420 net9414 net9421 net9213 net9415 vdd vss unit_coupling_tile
xi2268 net9423 net9223 net9425 net9424 net9421 net9426 net9211 net9422 vdd vss unit_coupling_tile
xi2267 net9432 net9219 net9433 net9425 net9426 net9428 net9218 net9431 vdd vss unit_coupling_tile
xi2266 net9430 net9228 net9437 net9433 net9428 net9434 net9227 net9429 vdd vss unit_coupling_tile
xi2265 net9436 net9226 net9438 net9437 net9434 net9439 net9225 net9435 vdd vss unit_coupling_tile
xi2264 net9441 net9232 net9366 net9438 net9439 net9363 net9231 net9440 vdd vss unit_coupling_tile
xi2263 net9365 net9237 net9367 net9366 net9363 net9361 net9236 net9364 vdd vss unit_coupling_tile
xi2262 net9374 net9161 net9371 net9367 net9361 net9368 net9160 net9362 vdd vss unit_coupling_tile
xi2261 net9370 net9170 net9372 net9371 net9368 net9373 net9158 net9369 vdd vss unit_coupling_tile
xi2260 net9379 net9166 net9380 net9372 net9373 net9375 net9165 net9378 vdd vss unit_coupling_tile
xi2259 net9377 net9175 net9384 net9380 net9375 net9381 net9174 net9376 vdd vss unit_coupling_tile
xi2258 net9383 net9173 net9385 net9384 net9381 net9386 net9172 net9382 vdd vss unit_coupling_tile
xi2257 net9392 net9179 net9390 net9385 net9386 net9387 net9178 net9391 vdd vss unit_coupling_tile
xi2256 net9389 net9184 net9396 net9390 net9387 net9393 net9183 net9388 vdd vss unit_coupling_tile
xi2255 net9395 net9188 net9397 net9396 net9393 net9398 net9187 net9394 vdd vss unit_coupling_tile
xi2253 net9326 net9196 net9328 net9327 net9324 net9321 net9190 net9325 vdd vss unit_coupling_tile
xi2252 net9323 net9122 net9332 net9328 net9321 net9329 net9121 net9322 vdd vss unit_coupling_tile
xi2251 net9331 net9119 net9333 net9332 net9329 net9334 net9118 net9330 vdd vss unit_coupling_tile
xi2250 net9338 net9127 net9339 net9333 net9334 net9340 net9126 net9337 vdd vss unit_coupling_tile
xi2249 net9336 net9136 net9346 net58 net58 net9343 net9135 net9335 vdd vss unit_coupling_tile
xi2248 net9345 net9133 net9347 net9346 net9343 net9341 net9132 net9344 vdd vss unit_coupling_tile
xi2247 net9354 net9141 net9351 net9347 net9341 net9348 net9140 net9342 vdd vss unit_coupling_tile
xi2246 net9350 net9150 net9352 net9351 net9348 net9353 net9138 net9349 vdd vss unit_coupling_tile
xi2245 net9359 net9146 net9360 net9352 net9353 net9355 net9145 net9358 vdd vss unit_coupling_tile
xi2244 net9357 net9155 net9286 net9360 net9355 net9283 net9154 net9356 vdd vss unit_coupling_tile
xi2243 net9285 net9153 net9282 net9286 net9283 net9279 net9152 net9284 vdd vss unit_coupling_tile
xi2242 net9281 net9081 net9292 net9282 net9279 net9289 net9080 net9280 vdd vss unit_coupling_tile
xi2241 net9291 net9077 net9293 net9292 net9289 net9287 net9076 net9290 vdd vss unit_coupling_tile
xi2240 net9300 net9087 net9297 net9293 net9287 net9294 net9086 net9288 vdd vss unit_coupling_tile
xi2239 net9296 net9096 net9298 net9297 net9294 net9299 net9084 net9295 vdd vss unit_coupling_tile
xi2238 net9305 net9092 net9306 net9298 net9299 net9301 net9091 net9304 vdd vss unit_coupling_tile
xi2237 net9303 net9101 net9310 net9306 net9301 net9307 net9100 net9302 vdd vss unit_coupling_tile
xi2236 net9309 net9099 net9311 net9310 net9307 net9312 net9098 net9308 vdd vss unit_coupling_tile
xi2235 net9318 net9105 net9316 net9311 net9312 net9313 net9104 net9317 vdd vss unit_coupling_tile
xi2234 net9315 net9114 net9245 net9316 net9313 net9319 net9113 net9314 vdd vss unit_coupling_tile
xi2233 net9244 net9111 net9241 net9245 net9319 net9238 net9110 net9320 vdd vss unit_coupling_tile
xi2232 net9240 net9040 net9242 net9241 net9238 net9243 net9116 net9239 vdd vss unit_coupling_tile
xi2231 net9250 net9036 net9251 net9242 net9243 net9246 net9035 net9249 vdd vss unit_coupling_tile
xi2230 net9248 net9046 net9255 net9251 net9246 net9252 net9045 net9247 vdd vss unit_coupling_tile
xi2229 net9254 net9044 net9256 net9255 net9252 net9257 net9043 net9253 vdd vss unit_coupling_tile
xi2228 net9263 net9050 net9261 net9256 net9257 net9258 net9049 net9262 vdd vss unit_coupling_tile
xi2227 net9260 net9059 net9269 net9261 net9258 net9266 net9058 net9259 vdd vss unit_coupling_tile
xi2226 net9268 net9056 net9270 net9269 net9266 net9264 net9055 net9267 vdd vss unit_coupling_tile
xi2225 net9276 net9064 net9274 net9270 net9264 net9271 net9063 net9265 vdd vss unit_coupling_tile
xi2224 net9273 net9072 net9203 net9274 net9271 net9275 net9061 net9272 vdd vss unit_coupling_tile
xi2223 net9278 net9069 net9200 net9203 net9275 net9197 net9068 net9277 vdd vss unit_coupling_tile
xi2222 net9199 net9074 net9201 net9200 net9197 net9202 net9073 net9198 vdd vss unit_coupling_tile
xi2221 net9209 net8995 net9207 net9201 net9202 net9204 net8994 net9208 vdd vss unit_coupling_tile
xi2220 net9206 net9005 net9215 net9207 net9204 net9212 net9004 net9205 vdd vss unit_coupling_tile
xi2219 net9214 net9002 net9216 net9215 net9212 net9210 net9001 net9213 vdd vss unit_coupling_tile
xi2218 net9223 net9010 net9220 net9216 net9210 net9217 net9009 net9211 vdd vss unit_coupling_tile
xi2217 net9219 net9019 net9221 net9220 net9217 net9222 net9007 net9218 vdd vss unit_coupling_tile
xi2216 net9228 net9015 net9229 net9221 net9222 net9224 net9014 net9227 vdd vss unit_coupling_tile
xi2215 net9226 net9024 net9233 net9229 net9224 net9230 net9023 net9225 vdd vss unit_coupling_tile
xi2214 net9232 net9022 net9234 net9233 net9230 net9235 net9021 net9231 vdd vss unit_coupling_tile
xi2213 net9237 net9028 net9162 net9234 net9235 net9159 net9027 net9236 vdd vss unit_coupling_tile
xi2212 net9161 net9033 net9163 net9162 net9159 net9157 net9032 net9160 vdd vss unit_coupling_tile
xi2211 net9170 net8957 net9167 net9163 net9157 net9164 net8956 net9158 vdd vss unit_coupling_tile
xi2210 net9166 net8966 net9168 net9167 net9164 net9169 net8954 net9165 vdd vss unit_coupling_tile
xi2209 net9175 net8962 net9176 net9168 net9169 net9171 net8961 net9174 vdd vss unit_coupling_tile
xi2208 net9173 net8971 net9180 net9176 net9171 net9177 net8970 net9172 vdd vss unit_coupling_tile
xi2207 net9179 net8969 net9181 net9180 net9177 net9182 net8968 net9178 vdd vss unit_coupling_tile
xi2206 net9184 net8976 net9185 net9181 net9182 net9186 net8975 net9183 vdd vss unit_coupling_tile
xi2204 net9193 net8981 net9195 net9194 net9191 net9189 net8980 net9192 vdd vss unit_coupling_tile
xi2203 net9196 net8989 net9123 net9195 net9189 net9120 net8988 net9190 vdd vss unit_coupling_tile